# AFLOW.org Repositories
# Ge1Te1   [RHL,RHL1,hR2] (STD_PRIM doi:10
data_Ge1Te1
_pd_phase_name Ge1Te1
_cell_length_a  4.3248011860
_cell_length_b  4.3248011860
_cell_length_c  4.3248011860
_cell_angle_alpha  58.5251100765
_cell_angle_beta  58.5251100765
_cell_angle_gamma  58.5251100765
_symmetry_space_group_name_H-M  'P1'
_symmetry_Int_Tables_Number  1
loop_
_symmetry_equiv_pos_site_id
_symmetry_equiv_pos_as_xyz
  1  x,y,z
loop_
 _atom_site_label
 _atom_site_occupancy
 _atom_site_fract_x
 _atom_site_fract_y
 _atom_site_fract_z
 _atom_site_thermal_displace_type
 _atom_site_B_iso_or_equiv
 _atom_site_type_symbol
Ge1 1.0 0.7621546161 0.7621546161 0.7621546161  Biso 1.0 Ge
Te2 1.0 0.2378453839 0.2378453839 0.2378453839  Biso 1.0 Te
